*SPEF "IEEE 1481-1998"
*DESIGN "systemcdes"
*DATE "Tue Nov 25 17:04:02 2014"
*VENDOR "TAU 2015 Contest"
*PROGRAM "Benchmark Parasitic Generator"
*VERSION "0.0"
*DESIGN_FLOW "NETLIST_TYPE_VERILOG"
*DIVIDER /
*DELIMITER :
*BUS_DELIMITER [ ]
*T_UNIT 1 PS
*C_UNIT 1 FF
*R_UNIT 1 KOHM
*L_UNIT 1 UH

*D_NET net_2388 0.3779
*CONN
*I inst_1610:ZN O
*I inst_172:A I
*CAP
1 inst_1610:ZN 0.0193
2 inst_172:A 0.0132
3 net_2388:1 0.0486
4 net_2388:2 0.2270
5 net_2388:3 0.0669
6 net_2388:4 0.0010
7 net_2388:5 0.0010
8 net_2388:6 0.0010
*RES
2 inst_1610:ZN net_2388:3 0.0050
3 inst_172:A net_2388:4 0.0050
4 net_2388:1 net_2388:2 0.0050
5 net_2388:1 net_2388:5 0.0014
6 net_2388:4 net_2388:2 0.0080
7 net_2388:5 net_2388:6 0.0050
8 net_2388:6 net_2388:3 0.0015
*END

*D_NET net_2449 0.2601
*CONN
*I inst_678:ZN O
*I inst_1618:A1 I
*CAP
1 inst_1618:A1 0.0211
2 inst_678:ZN 0.0072
3 net_2449:1 0.0766
4 net_2449:2 0.0525
5 net_2449:3 0.0998
6 net_2449:4 0.0010
7 net_2449:5 0.0010
8 net_2449:6 0.0010
*RES
2 inst_1618:A1 net_2449:4 0.0050
3 inst_678:ZN net_2449:3 0.0050
4 net_2449:1 net_2449:2 0.0050
5 net_2449:1 net_2449:5 0.0020
6 net_2449:4 net_2449:2 0.0010
7 net_2449:5 net_2449:6 0.0050
8 net_2449:6 net_2449:3 0.0035
*END

*D_NET net_1317 0.3053
*CONN
*I inst_619:ZN O
*I inst_297:A1 I
*CAP
1 inst_619:ZN 0.0158
2 inst_297:A1 0.0272
3 net_1317:1 0.1367
4 net_1317:2 0.1226
5 net_1317:3 0.0010
6 net_1317:4 0.0010
7 net_1317:5 0.0010
*RES
2 inst_619:ZN net_1317:2 0.0050
3 inst_297:A1 net_1317:3 0.0010
4 net_1317:1 net_1317:5 0.0010
5 net_1317:4 net_1317:1 0.0035
6 net_1317:4 net_1317:3 0.0050
7 net_1317:5 net_1317:2 0.0040
*END

*D_NET net_416 0.1896
*CONN
*I inst_1087:ZN O
*I inst_409:A1 I
*CAP
1 inst_1087:ZN 0.0858
2 inst_409:A1 0.0243
3 net_416:1 0.0765
4 net_416:2 0.0010
5 net_416:3 0.0010
6 net_416:4 0.0010
*RES
2 inst_1087:ZN net_416:2 0.0052
3 inst_409:A1 net_416:3 0.0010
4 net_416:1 net_416:2 0.0050
5 net_416:1 net_416:4 0.0015
6 net_416:4 net_416:3 0.0050
*END

*D_NET net_215 0.4830
*CONN
*I inst_1123:ZN O
*I inst_1107:A1 I
*CAP
1 inst_1107:A1 0.0271
2 inst_1123:ZN 0.0090
3 net_215:1 0.3738
4 net_215:2 0.0206
5 net_215:3 0.0138
6 net_215:4 0.0150
7 net_215:5 0.0227
8 net_215:6 0.0010
*RES
2 inst_1107:A1 net_215:2 0.0050
3 inst_1123:ZN net_215:5 0.0050
4 net_215:1 net_215:4 0.0050
5 net_215:2 net_215:3 0.0010
6 net_215:4 net_215:5 0.0010
7 net_215:6 net_215:1 0.0115
8 net_215:6 net_215:3 0.0050
*END

*D_NET net_2394 1.8667
*CONN
*I inst_985:ZN O
*I inst_1827:A I
*I inst_1359:A1 I
*CAP
1 inst_1827:A 0.0307
2 inst_1359:A1 0.0258
3 inst_985:ZN 0.0136
4 net_2394:1 0.6495
5 net_2394:2 0.6690
6 net_2394:3 0.0156
7 net_2394:4 0.0568
8 net_2394:5 0.0263
9 net_2394:6 0.0614
10 net_2394:7 0.0447
11 net_2394:8 0.0092
12 net_2394:9 0.1197
13 net_2394:10 0.1213
14 net_2394:11 0.0181
15 net_2394:12 0.0010
16 net_2394:13 0.0010
17 net_2394:14 0.0010
18 net_2394:15 0.0010
19 net_2394:16 0.0010
*RES
2 inst_1827:A net_2394:13 0.0021
3 inst_1359:A1 net_2394:7 0.0050
4 inst_985:ZN net_2394:12 0.0050
5 net_2394:1 net_2394:4 0.0050
6 net_2394:2 net_2394:5 0.0050
7 net_2394:3 net_2394:10 0.0050
8 net_2394:4 net_2394:16 0.0020
9 net_2394:5 net_2394:11 0.0050
10 net_2394:6 net_2394:13 0.0050
11 net_2394:6 net_2394:9 0.0055
12 net_2394:6 net_2394:11 0.0025
13 net_2394:7 net_2394:8 0.0010
14 net_2394:8 net_2394:9 0.0010
15 net_2394:12 net_2394:10 0.0040
16 net_2394:14 net_2394:1 0.0099
17 net_2394:14 net_2394:3 0.0050
18 net_2394:15 net_2394:2 0.0097
19 net_2394:15 net_2394:16 0.0050
*END

*D_NET net_933 0.8690
*CONN
*I inst_2323:ZN O
*I inst_2000:A I
*I inst_623:A3 I
*CAP
1 inst_2323:ZN 0.0130
2 inst_2000:A 0.0535
3 inst_623:A3 0.0412
4 net_933:1 0.1668
5 net_933:2 0.1911
6 net_933:3 0.0197
7 net_933:4 0.0723
8 net_933:5 0.0816
9 net_933:6 0.0279
10 net_933:7 0.0360
11 net_933:8 0.0217
12 net_933:9 0.0509
13 net_933:10 0.0498
14 net_933:11 0.0149
15 net_933:12 0.0216
16 net_933:13 0.0010
17 net_933:14 0.0010
18 net_933:15 0.0010
19 net_933:16 0.0010
20 net_933:17 0.0010
21 net_933:18 0.0010
22 net_933:19 0.0010
*RES
2 inst_2323:ZN net_933:11 0.0050
3 inst_2000:A net_933:14 0.0021
4 inst_623:A3 net_933:13 0.0021
5 net_933:1 net_933:3 0.0030
6 net_933:1 net_933:2 0.0034
7 net_933:1 net_933:15 0.0029
8 net_933:2 net_933:4 0.0030
9 net_933:3 net_933:6 0.0050
10 net_933:6 net_933:18 0.0050
11 net_933:7 net_933:10 0.0050
12 net_933:8 net_933:12 0.0050
13 net_933:9 net_933:14 0.0050
14 net_933:11 net_933:12 0.0010
15 net_933:15 net_933:5 0.0030
16 net_933:16 net_933:4 0.0010
17 net_933:16 net_933:7 0.0050
18 net_933:17 net_933:5 0.0010
19 net_933:17 net_933:8 0.0050
20 net_933:18 net_933:9 0.0010
21 net_933:19 net_933:10 0.0010
22 net_933:19 net_933:13 0.0050
*END

*D_NET net_2418 0.5976
*CONN
*I inst_2164:ZN O
*I inst_2163:A I
*I inst_2173:A I
*I inst_1453:A2 I
*I inst_0:B I
*CAP
1 inst_2163:A 0.0223
2 inst_2164:ZN 0.0085
3 inst_2173:A 0.0381
4 inst_1453:A2 0.0153
5 inst_0:B 0.0146
6 net_2418:1 0.0311
7 net_2418:2 0.0677
8 net_2418:3 0.1986
9 net_2418:4 0.0155
10 net_2418:5 0.0516
11 net_2418:6 0.0168
12 net_2418:7 0.0178
13 net_2418:8 0.0428
14 net_2418:9 0.0175
15 net_2418:10 0.0128
16 net_2418:11 0.0227
17 net_2418:12 0.0010
18 net_2418:13 0.0010
19 net_2418:14 0.0010
20 net_2418:15 0.0010
*RES
2 inst_2163:A net_2418:5 0.0050
3 inst_2164:ZN net_2418:9 0.0050
4 inst_2173:A net_2418:13 0.0031
5 inst_1453:A2 net_2418:12 0.0050
6 inst_1453:A2 net_2418:11 0.0010
7 inst_0:B net_2418:4 0.0050
8 net_2418:1 net_2418:10 0.0050
9 net_2418:1 net_2418:2 0.0027
10 net_2418:1 net_2418:14 0.0014
11 net_2418:2 net_2418:4 0.0050
12 net_2418:3 net_2418:7 0.0050
13 net_2418:3 net_2418:15 0.0088
14 net_2418:5 net_2418:6 0.0010
15 net_2418:5 net_2418:7 0.0020
16 net_2418:8 net_2418:12 0.0010
17 net_2418:9 net_2418:10 0.0010
18 net_2418:13 net_2418:11 0.0010
19 net_2418:14 net_2418:6 0.0050
20 net_2418:15 net_2418:8 0.0050
*END

*D_NET net_1382 0.1387
*CONN
*I inst_1426:ZN O
*I inst_1487:A1 I
*CAP
1 inst_1426:ZN 0.0866
2 inst_1487:A1 0.0201
3 net_1382:1 0.0300
4 net_1382:2 0.0010
5 net_1382:3 0.0010
*RES
2 inst_1426:ZN net_1382:2 0.0052
3 inst_1487:A1 net_1382:1 0.0050
4 net_1382:1 net_1382:3 0.0010
5 net_1382:3 net_1382:2 0.0050
*END

*D_NET net_1244 0.2185
*CONN
*I inst_1381:ZN O
*I inst_632:A3 I
*CAP
1 inst_1381:ZN 0.0578
2 inst_632:A3 0.0079
3 net_1244:1 0.1509
4 net_1244:2 0.0010
5 net_1244:3 0.0010
*RES
2 inst_1381:ZN net_1244:2 0.0031
3 inst_632:A3 net_1244:3 0.0050
4 net_1244:1 net_1244:2 0.0050
5 net_1244:3 net_1244:1 0.0055
*END

*D_NET net_1215 0.3107
*CONN
*I inst_1285:ZN O
*I inst_2762:B2 I
*CAP
1 inst_2762:B2 0.0138
2 inst_1285:ZN 0.0398
3 net_1215:1 0.2550
4 net_1215:2 0.0010
5 net_1215:3 0.0010
*RES
2 inst_2762:B2 net_1215:1 0.0050
3 inst_1285:ZN net_1215:2 0.0021
4 net_1215:1 net_1215:3 0.0090
5 net_1215:3 net_1215:2 0.0050
*END

*D_NET net_943 0.2117
*CONN
*I inst_1312:ZN O
*I inst_2543:D I
*CAP
1 inst_2543:D 0.0258
2 inst_1312:ZN 0.0539
3 net_943:1 0.1301
4 net_943:2 0.0010
5 net_943:3 0.0010
*RES
2 inst_2543:D net_943:3 0.0050
3 inst_1312:ZN net_943:2 0.0031
4 net_943:1 net_943:2 0.0050
5 net_943:3 net_943:1 0.0035
*END

*D_NET net_429 0.1509
*CONN
*I inst_2210:ZN O
*I inst_109:B2 I
*CAP
1 inst_2210:ZN 0.0076
2 inst_109:B2 0.0112
3 net_429:1 0.1310
4 net_429:2 0.0010
*RES
2 inst_2210:ZN net_429:1 0.0050
3 inst_109:B2 net_429:2 0.0050
4 net_429:2 net_429:1 0.0045
*END

*D_NET net_3377 0.8304
*CONN
*I inst_3419:Z O
*I inst_3420:A I
*CAP
1 inst_3419:Z 0.2452
2 net_3377:1 0.2079
3 net_3377:2 0.2449
4 net_3377:3 0.0406
5 inst_3420:A 0.0917
*RES
2 inst_3419:Z net_3377:1 0.0078
3 net_3377:1 net_3377:2 0.0227
4 net_3377:2 net_3377:3 0.0264
5 net_3377:3 inst_3420:A 0.0174
*END

*D_NET net_129 0.2049
*CONN
*I inst_0:Z O
*I inst_2531:D I
*CAP
1 inst_2531:D 0.0081
2 inst_0:Z 0.0095
3 net_129:1 0.0463
4 net_129:2 0.0152
5 net_129:3 0.0087
6 net_129:4 0.1149
7 net_129:5 0.0010
8 net_129:6 0.0010
*RES
2 inst_2531:D net_129:2 0.0050
3 inst_0:Z net_129:5 0.0050
4 net_129:1 net_129:4 0.0050
5 net_129:2 net_129:3 0.0010
6 net_129:4 net_129:5 0.0040
7 net_129:6 net_129:1 0.0014
8 net_129:6 net_129:3 0.0050
*END

*D_NET net_373 0.1789
*CONN
*I inst_356:ZN O
*I inst_858:A2 I
*CAP
1 inst_858:A2 0.0146
2 inst_356:ZN 0.0204
3 net_373:1 0.1419
4 net_373:2 0.0010
5 net_373:3 0.0010
*RES
2 inst_858:A2 net_373:1 0.0050
3 inst_356:ZN net_373:2 0.0010
4 net_373:3 net_373:1 0.0045
5 net_373:3 net_373:2 0.0050
*END

*D_NET net_98 4.8664
*CONN
*I inst_1752:ZN O
*I inst_2374:A I
*I inst_1755:A I
*I inst_1169:A1 I
*I inst_1177:A1 I
*I inst_1185:A1 I
*I inst_1238:A1 I
*I inst_1257:A1 I
*CAP
1 inst_2374:A 0.0568
2 inst_1752:ZN 0.0324
3 inst_1755:A 0.0129
4 inst_1169:A1 0.0229
5 inst_1177:A1 0.0303
6 inst_1185:A1 0.0283
7 inst_1238:A1 0.0245
8 inst_1257:A1 0.0243
9 net_98:1 1.4113
10 net_98:2 0.1040
11 net_98:3 0.0648
12 net_98:4 0.1443
13 net_98:5 0.2646
14 net_98:6 0.1024
15 net_98:7 0.0305
16 net_98:8 0.0947
17 net_98:9 0.1045
18 net_98:10 0.4079
19 net_98:11 0.2098
20 net_98:12 0.0348
21 net_98:13 0.1152
22 net_98:14 0.0178
23 net_98:15 0.0979
24 net_98:16 0.4347
25 net_98:17 0.1285
26 net_98:18 0.0814
27 net_98:19 0.0653
28 net_98:20 0.0178
29 net_98:21 0.0990
30 net_98:22 0.3131
31 net_98:23 0.0147
32 net_98:24 0.0677
33 net_98:25 0.1657
34 net_98:26 0.0177
35 net_98:27 0.0099
36 net_98:28 0.0010
37 net_98:29 0.0010
38 net_98:30 0.0010
39 net_98:31 0.0010
40 net_98:32 0.0010
41 net_98:33 0.0010
42 net_98:34 0.0010
43 net_98:35 0.0010
44 net_98:36 0.0010
45 net_98:37 0.0010
46 net_98:38 0.0010
47 net_98:39 0.0010
48 net_98:40 0.0010
49 net_98:41 0.0010
*RES
2 inst_2374:A net_98:28 0.0031
3 inst_1752:ZN net_98:25 0.0050
4 inst_1752:ZN net_98:26 0.0050
5 inst_1755:A net_98:22 0.0050
6 inst_1169:A1 net_98:27 0.0050
7 inst_1177:A1 net_98:24 0.0050
8 inst_1185:A1 net_98:16 0.0050
9 inst_1238:A1 net_98:21 0.0050
10 inst_1257:A1 net_98:19 0.0050
11 net_98:1 net_98:3 0.0030
12 net_98:1 net_98:29 0.0294
13 net_98:2 net_98:6 0.0050
14 net_98:2 net_98:30 0.0011
15 net_98:3 net_98:32 0.0050
16 net_98:4 net_98:33 0.0017
17 net_98:5 net_98:15 0.0050
18 net_98:6 net_98:13 0.0060
19 net_98:6 net_98:35 0.0049
20 net_98:7 net_98:18 0.0050
21 net_98:8 net_98:26 0.0050
22 net_98:8 net_98:9 0.0041
23 net_98:8 net_98:36 0.0034
24 net_98:9 net_98:37 0.0050
25 net_98:10 net_98:22 0.0050
26 net_98:10 net_98:32 0.0126
27 net_98:11 net_98:12 0.0090
28 net_98:12 net_98:13 0.0010
29 net_98:14 net_98:27 0.0050
30 net_98:15 net_98:38 0.0030
31 net_98:16 net_98:18 0.0025
32 net_98:16 net_98:40 0.0155
33 net_98:17 net_98:41 0.0040
34 net_98:19 net_98:20 0.0020
35 net_98:22 net_98:23 0.0125
36 net_98:24 net_98:25 0.0055
37 net_98:24 net_98:39 0.0015
38 net_98:29 net_98:4 0.0030
39 net_98:30 net_98:31 0.0050
40 net_98:31 net_98:7 0.0010
41 net_98:33 net_98:11 0.0050
42 net_98:34 net_98:5 0.0034
43 net_98:34 net_98:14 0.0050
44 net_98:35 net_98:20 0.0050
45 net_98:36 net_98:23 0.0050
46 net_98:37 net_98:21 0.0025
47 net_98:38 net_98:39 0.0050
48 net_98:40 net_98:17 0.0010
49 net_98:41 net_98:28 0.0050
*END

*D_NET net_1897 0.0776
*CONN
*I inst_1288:ZN O
*I inst_761:A1 I
*CAP
1 inst_1288:ZN 0.0766
2 inst_761:A1 0.0010
*RES
2 inst_1288:ZN inst_761:A1 0.0041
*END

*D_NET net_980 1.0751
*CONN
*I inst_2008:ZN O
*I inst_1715:A2 I
*I inst_1574:A1 I
*I inst_768:A1 I
*I inst_848:A1 I
*CAP
1 inst_2008:ZN 0.0109
2 inst_1715:A2 0.0187
3 inst_1574:A1 0.0210
4 inst_768:A1 0.0148
5 inst_848:A1 0.0170
6 net_980:1 0.1867
7 net_980:2 0.3145
8 net_980:3 0.1161
9 net_980:4 0.0377
10 net_980:5 0.1495
11 net_980:6 0.0507
12 net_980:7 0.0530
13 net_980:8 0.0116
14 net_980:9 0.0308
15 net_980:10 0.0361
16 net_980:11 0.0010
17 net_980:12 0.0010
18 net_980:13 0.0010
19 net_980:14 0.0010
20 net_980:15 0.0010
21 net_980:16 0.0010
*RES
2 inst_2008:ZN net_980:9 0.0010
3 inst_1715:A2 net_980:12 0.0010
4 inst_1574:A1 net_980:11 0.0050
5 inst_768:A1 net_980:6 0.0050
6 inst_768:A1 net_980:10 0.0031
7 inst_848:A1 net_980:5 0.0050
8 net_980:1 net_980:5 0.0050
9 net_980:1 net_980:13 0.0081
10 net_980:2 net_980:14 0.0050
11 net_980:2 net_980:15 0.0122
12 net_980:3 net_980:4 0.0015
13 net_980:3 net_980:8 0.0040
14 net_980:4 net_980:12 0.0050
15 net_980:5 net_980:16 0.0045
16 net_980:6 net_980:14 0.0010
17 net_980:7 net_980:8 0.0010
18 net_980:9 net_980:10 0.0010
19 net_980:11 net_980:7 0.0010
20 net_980:13 net_980:3 0.0050
21 net_980:15 net_980:16 0.0050
*END

*D_NET net_151 0.6343
*CONN
*I inst_364:ZN O
*I inst_2619:D I
*CAP
1 inst_2619:D 0.0275
2 inst_364:ZN 0.1193
3 net_151:1 0.1336
4 net_151:2 0.1892
5 net_151:3 0.1607
6 net_151:4 0.0010
7 net_151:5 0.0010
8 net_151:6 0.0010
9 net_151:7 0.0010
*RES
2 inst_2619:D net_151:5 0.0050
3 inst_364:ZN net_151:4 0.0072
4 net_151:1 net_151:2 0.0050
5 net_151:1 net_151:6 0.0068
6 net_151:3 net_151:4 0.0050
7 net_151:5 net_151:2 0.0090
8 net_151:6 net_151:7 0.0050
9 net_151:7 net_151:3 0.0055
*END

*D_NET net_356 1.4757
*CONN
*I inst_1096:ZN O
*I inst_451:A1 I
*CAP
1 inst_1096:ZN 0.0230
2 inst_451:A1 0.0185
3 net_356:1 0.6008
4 net_356:2 0.2131
5 net_356:3 0.0674
6 net_356:4 0.3329
7 net_356:5 0.0205
8 net_356:6 0.1955
9 net_356:7 0.0010
10 net_356:8 0.0010
11 net_356:9 0.0010
12 net_356:10 0.0010
*RES
2 inst_1096:ZN net_356:7 0.0050
3 inst_451:A1 net_356:4 0.0050
4 net_356:1 net_356:2 0.0050
5 net_356:1 net_356:8 0.0090
6 net_356:3 net_356:6 0.0050
7 net_356:4 net_356:5 0.0110
8 net_356:6 net_356:7 0.0075
9 net_356:8 net_356:9 0.0050
10 net_356:9 net_356:3 0.0024
11 net_356:10 net_356:2 0.0077
12 net_356:10 net_356:5 0.0050
*END

*D_NET net_53 2.9420
*CONN
*I inst_2274:ZN O
*I inst_47:B2 I
*CAP
1 inst_2274:ZN 0.0246
2 inst_47:B2 0.0138
3 net_53:1 1.2994
4 net_53:2 0.9509
5 net_53:3 0.1557
6 net_53:4 0.2136
7 net_53:5 0.0667
8 net_53:6 0.0506
9 net_53:7 0.0993
10 net_53:8 0.0256
11 net_53:9 0.0137
12 net_53:10 0.0210
13 net_53:11 0.0010
14 net_53:12 0.0010
15 net_53:13 0.0010
16 net_53:14 0.0010
17 net_53:15 0.0010
18 net_53:16 0.0010
19 net_53:17 0.0010
*RES
2 inst_2274:ZN net_53:10 0.0050
3 inst_47:B2 net_53:8 0.0050
4 net_53:1 net_53:2 0.0030
5 net_53:1 net_53:11 0.0307
6 net_53:3 net_53:5 0.0030
7 net_53:4 net_53:6 0.0050
8 net_53:4 net_53:14 0.0021
9 net_53:5 net_53:15 0.0010
10 net_53:7 net_53:10 0.0050
11 net_53:8 net_53:9 0.0010
12 net_53:11 net_53:12 0.0030
13 net_53:12 net_53:3 0.0025
14 net_53:13 net_53:2 0.0151
15 net_53:13 net_53:14 0.0030
16 net_53:15 net_53:16 0.0050
17 net_53:16 net_53:7 0.0053
18 net_53:17 net_53:6 0.0010
19 net_53:17 net_53:9 0.0050
*END

*D_NET net_2542 0.1950
*CONN
*I inst_1634:ZN O
*I inst_2553:D I
*CAP
1 inst_2553:D 0.0676
2 inst_1634:ZN 0.0220
3 net_2542:1 0.1024
4 net_2542:2 0.0010
5 net_2542:3 0.0010
6 net_2542:4 0.0010
*RES
2 inst_2553:D net_2542:3 0.0021
3 inst_1634:ZN net_2542:2 0.0010
4 net_2542:1 net_2542:3 0.0050
5 net_2542:1 net_2542:4 0.0035
6 net_2542:4 net_2542:2 0.0050
*END

*D_NET x843 1.2359
*CONN
*P x843 I
*I inst_2291:A I
*CAP
1 x843 0.0304
2 inst_2291:A 0.0265
3 x843:1 0.6751
4 x843:2 0.5010
5 x843:3 0.0010
6 x843:4 0.0010
7 x843:5 0.0010
*RES
2 x843 x843:3 0.0010
3 inst_2291:A x843:4 0.0050
4 x843:1 x843:3 0.0050
5 x843:4 x843:2 0.0210
6 x843:5 x843:1 0.0312
7 x843:5 x843:2 0.0050
*END

*D_NET net_1786 0.4742
*CONN
*I inst_874:ZN O
*I inst_1789:A I
*CAP
1 inst_1789:A 0.0318
2 inst_874:ZN 0.0212
3 net_1786:1 0.3251
4 net_1786:2 0.0575
5 net_1786:3 0.0201
6 net_1786:4 0.0156
7 net_1786:5 0.0010
8 net_1786:6 0.0010
9 net_1786:7 0.0010
*RES
2 inst_1789:A net_1786:5 0.0021
3 inst_874:ZN net_1786:4 0.0050
4 net_1786:1 net_1786:3 0.0050
5 net_1786:2 net_1786:5 0.0050
6 net_1786:2 net_1786:7 0.0015
7 net_1786:3 net_1786:4 0.0010
8 net_1786:6 net_1786:1 0.0095
9 net_1786:6 net_1786:7 0.0050
*END

*D_NET net_1377 0.1361
*CONN
*I inst_2463:ZN O
*I inst_42:B2 I
*CAP
1 inst_2463:ZN 0.0092
2 inst_42:B2 0.0144
3 net_1377:1 0.1114
4 net_1377:2 0.0010
*RES
2 inst_2463:ZN net_1377:2 0.0050
3 inst_42:B2 net_1377:1 0.0050
4 net_1377:1 net_1377:2 0.0030
*END

*D_NET net_1625 0.1190
*CONN
*I inst_1461:ZN O
*I inst_1281:A2 I
*CAP
1 inst_1281:A2 0.0172
2 inst_1461:ZN 0.0561
3 net_1625:1 0.0438
4 net_1625:2 0.0010
5 net_1625:3 0.0010
*RES
2 inst_1281:A2 net_1625:3 0.0050
3 inst_1461:ZN net_1625:2 0.0031
4 net_1625:1 net_1625:2 0.0050
5 net_1625:1 net_1625:3 0.0010
*END

*D_NET net_452 0.2360
*CONN
*I inst_1082:ZN O
*I inst_658:A3 I
*CAP
1 inst_1082:ZN 0.0825
2 inst_658:A3 0.0077
3 net_452:1 0.1439
4 net_452:2 0.0010
5 net_452:3 0.0010
*RES
2 inst_1082:ZN net_452:2 0.0052
3 inst_658:A3 net_452:3 0.0050
4 net_452:1 net_452:2 0.0050
5 net_452:3 net_452:1 0.0055
*END

*D_NET x1024 0.6120
*CONN
*P x1024 I
*I inst_2259:A I
*CAP
1 x1024 0.3892
2 inst_2259:A 0.0108
3 x1024:1 0.0942
4 x1024:2 0.0968
5 x1024:3 0.0190
6 x1024:4 0.0010
7 x1024:5 0.0010
*RES
2 x1024 x1024:3 0.0176
3 inst_2259:A x1024:4 0.0050
4 x1024:1 x1024:3 0.0050
5 x1024:4 x1024:2 0.0035
6 x1024:5 x1024:1 0.0041
7 x1024:5 x1024:2 0.0050
*END

*D_NET x2211 5.2876
*CONN
*P x2211 I
*I inst_2717:B2 I
*CAP
1 x2211 0.0286
2 inst_2717:B2 0.0087
3 x2211:1 1.0504
4 x2211:2 0.1304
5 x2211:3 0.2824
6 x2211:4 0.0204
7 x2211:5 0.1884
8 x2211:6 1.1312
9 x2211:7 0.0352
10 x2211:8 0.0391
11 x2211:9 0.8608
12 x2211:10 0.4668
13 x2211:11 0.1368
14 x2211:12 0.0204
15 x2211:13 0.2189
16 x2211:14 0.0262
17 x2211:15 0.2508
18 x2211:16 0.0104
19 x2211:17 0.3707
20 x2211:18 0.0010
21 x2211:19 0.0010
22 x2211:20 0.0010
23 x2211:21 0.0010
24 x2211:22 0.0010
25 x2211:23 0.0010
26 x2211:24 0.0010
27 x2211:25 0.0010
28 x2211:26 0.0010
29 x2211:27 0.0010
30 x2211:28 0.0010
*RES
2 x2211 x2211:18 0.0010
3 inst_2717:B2 x2211:13 0.0050
4 x2211:1 x2211:19 0.0030
5 x2211:1 x2211:20 0.0218
6 x2211:2 x2211:7 0.0050
7 x2211:2 x2211:21 0.0010
8 x2211:3 x2211:22 0.0050
9 x2211:3 x2211:4 0.0046
10 x2211:4 x2211:5 0.0010
11 x2211:5 x2211:19 0.0017
12 x2211:6 x2211:23 0.0235
13 x2211:8 x2211:25 0.0010
14 x2211:9 x2211:16 0.0050
15 x2211:9 x2211:26 0.0312
16 x2211:10 x2211:27 0.0050
17 x2211:10 x2211:22 0.0182
18 x2211:11 x2211:12 0.0069
19 x2211:12 x2211:28 0.0010
20 x2211:13 x2211:14 0.0090
21 x2211:15 x2211:16 0.0100
22 x2211:17 x2211:27 0.0135
23 x2211:20 x2211:6 0.0030
24 x2211:21 x2211:8 0.0050
25 x2211:23 x2211:11 0.0050
26 x2211:24 x2211:7 0.0010
27 x2211:24 x2211:14 0.0050
28 x2211:25 x2211:15 0.0050
29 x2211:26 x2211:17 0.0050
30 x2211:28 x2211:18 0.0050
*END

*D_NET net_545 0.6293
*CONN
*I inst_2217:ZN O
*I inst_1274:A2 I
*I inst_63:B2 I
*CAP
1 inst_2217:ZN 0.0483
2 inst_1274:A2 0.0228
3 inst_63:B2 0.0140
4 net_545:1 0.0926
5 net_545:2 0.1850
6 net_545:3 0.0500
7 net_545:4 0.1170
8 net_545:5 0.0106
9 net_545:6 0.0200
10 net_545:7 0.0473
11 net_545:8 0.0166
12 net_545:9 0.0010
13 net_545:10 0.0010
14 net_545:11 0.0010
15 net_545:12 0.0010
16 net_545:13 0.0010
*RES
2 inst_2217:ZN net_545:9 0.0031
3 inst_1274:A2 net_545:10 0.0010
4 inst_63:B2 net_545:3 0.0050
5 net_545:1 net_545:5 0.0050
6 net_545:2 net_545:8 0.0050
7 net_545:3 net_545:4 0.0040
8 net_545:3 net_545:8 0.0020
9 net_545:5 net_545:6 0.0010
10 net_545:6 net_545:10 0.0050
11 net_545:11 net_545:1 0.0027
12 net_545:11 net_545:4 0.0050
13 net_545:12 net_545:2 0.0075
14 net_545:12 net_545:7 0.0050
15 net_545:13 net_545:7 0.0010
16 net_545:13 net_545:9 0.0050
*END

*D_NET net_2147 0.0688
*CONN
*I inst_1289:ZN O
*I inst_1031:A1 I
*CAP
1 inst_1289:ZN 0.0678
2 inst_1031:A1 0.0010
*RES
2 inst_1289:ZN inst_1031:A1 0.0041
*END

*D_NET net_1483 0.4292
*CONN
*I inst_2493:Q O
*I inst_1199:A2 I
*CAP
1 inst_2493:Q 0.0271
2 inst_1199:A2 0.0111
3 net_1483:1 0.1269
4 net_1483:2 0.2440
5 net_1483:3 0.0170
6 net_1483:4 0.0010
7 net_1483:5 0.0010
8 net_1483:6 0.0010
*RES
2 inst_2493:Q net_1483:4 0.0010
3 inst_1199:A2 net_1483:5 0.0050
4 net_1483:1 net_1483:2 0.0050
5 net_1483:1 net_1483:6 0.0047
6 net_1483:3 net_1483:4 0.0050
7 net_1483:5 net_1483:2 0.0090
8 net_1483:6 net_1483:3 0.0050
*END

*D_NET net_284 6.2331
*CONN
*I inst_1926:ZN O
*I inst_2703:A1 I
*I inst_2704:A1 I
*I inst_2706:A1 I
*I inst_2707:A1 I
*I inst_2709:A1 I
*I inst_2715:A1 I
*I inst_2735:A1 I
*I inst_2747:A1 I
*I inst_1920:A I
*I inst_1921:A I
*CAP
1 inst_2703:A1 0.0299
2 inst_2704:A1 0.0185
3 inst_2706:A1 0.0243
4 inst_2707:A1 0.0307
5 inst_2709:A1 0.0233
6 inst_2715:A1 0.0292
7 inst_2735:A1 0.0208
8 inst_2747:A1 0.0240
9 inst_1920:A 0.0501
10 inst_1921:A 0.0144
11 inst_1926:ZN 0.0243
12 net_284:1 0.3532
13 net_284:2 0.0423
14 net_284:3 0.6892
15 net_284:4 0.0751
16 net_284:5 0.3086
17 net_284:6 0.0148
18 net_284:7 0.1483
19 net_284:8 0.1020
20 net_284:9 0.0851
21 net_284:10 0.0789
22 net_284:11 0.0365
23 net_284:12 0.1108
24 net_284:13 0.0270
25 net_284:14 0.1682
26 net_284:15 0.2611
27 net_284:16 0.4914
28 net_284:17 0.1261
29 net_284:18 0.1237
30 net_284:19 0.0386
31 net_284:20 0.0209
32 net_284:21 0.2788
33 net_284:22 0.0472
34 net_284:23 0.0420
35 net_284:24 0.1040
36 net_284:25 0.0130
37 net_284:26 0.0839
38 net_284:27 0.0206
39 net_284:28 0.0469
40 net_284:29 0.1428
41 net_284:30 0.0170
42 net_284:31 0.2323
43 net_284:32 0.1039
44 net_284:33 0.4667
45 net_284:34 0.0128
46 net_284:35 0.0134
47 net_284:36 0.0241
48 net_284:37 0.0310
49 net_284:38 0.0154
50 net_284:39 0.0157
51 net_284:40 0.5141
52 net_284:41 0.0174
53 net_284:42 0.0729
54 net_284:43 0.0201
55 net_284:44 0.2487
56 net_284:45 0.0330
57 net_284:46 0.0010
58 net_284:47 0.0010
59 net_284:48 0.0010
60 net_284:49 0.0010
61 net_284:50 0.0010
62 net_284:51 0.0010
63 net_284:52 0.0010
64 net_284:53 0.0010
65 net_284:54 0.0010
66 net_284:55 0.0010
67 net_284:56 0.0010
68 net_284:57 0.0010
69 net_284:58 0.0010
70 net_284:59 0.0010
71 net_284:60 0.0010
72 net_284:61 0.0010
73 net_284:62 0.0010
74 net_284:63 0.0010
75 net_284:64 0.0010
76 net_284:65 0.0010
77 net_284:66 0.0010
78 net_284:67 0.0010
79 net_284:68 0.0010
80 net_284:69 0.0010
*RES
2 inst_2703:A1 net_284:37 0.0050
3 inst_2704:A1 net_284:49 0.0050
4 inst_2706:A1 net_284:32 0.0050
5 inst_2707:A1 net_284:39 0.0050
6 inst_2709:A1 net_284:34 0.0050
7 inst_2715:A1 net_284:42 0.0050
8 inst_2735:A1 net_284:29 0.0050
9 inst_2747:A1 net_284:41 0.0050
10 inst_1920:A net_284:48 0.0031
11 inst_1921:A net_284:25 0.0050
12 inst_1926:ZN net_284:46 0.0050
13 inst_1926:ZN net_284:47 0.0010
14 net_284:1 net_284:6 0.0030
15 net_284:1 net_284:50 0.0071
16 net_284:2 net_284:52 0.0030
17 net_284:2 net_284:53 0.0010
18 net_284:3 net_284:54 0.0118
19 net_284:4 net_284:10 0.0030
20 net_284:4 net_284:5 0.0055
21 net_284:4 net_284:51 0.0013
22 net_284:5 net_284:55 0.0030
23 net_284:6 net_284:11 0.0030
24 net_284:7 net_284:8 0.0015
25 net_284:7 net_284:55 0.0017
26 net_284:8 net_284:56 0.0050
27 net_284:9 net_284:57 0.0050
28 net_284:9 net_284:52 0.0010
29 net_284:10 net_284:58 0.0050
30 net_284:10 net_284:59 0.0010
31 net_284:11 net_284:22 0.0050
32 net_284:12 net_284:23 0.0050
33 net_284:12 net_284:60 0.0010
34 net_284:13 net_284:25 0.0050
35 net_284:14 net_284:62 0.0050
36 net_284:14 net_284:15 0.0115
37 net_284:14 net_284:57 0.0068
38 net_284:15 net_284:26 0.0050
39 net_284:16 net_284:30 0.0050
40 net_284:16 net_284:63 0.0204
41 net_284:17 net_284:64 0.0055
42 net_284:18 net_284:35 0.0050
43 net_284:18 net_284:65 0.0041
44 net_284:19 net_284:38 0.0050
45 net_284:19 net_284:58 0.0010
46 net_284:20 net_284:39 0.0050
47 net_284:20 net_284:21 0.0010
48 net_284:21 net_284:66 0.0109
49 net_284:23 net_284:43 0.0050
50 net_284:24 net_284:44 0.0050
51 net_284:26 net_284:28 0.0015
52 net_284:26 net_284:69 0.0030
53 net_284:27 net_284:47 0.0050
54 net_284:27 net_284:28 0.0010
55 net_284:29 net_284:36 0.0010
56 net_284:29 net_284:30 0.0055
57 net_284:31 net_284:46 0.0075
58 net_284:32 net_284:44 0.0095
59 net_284:32 net_284:62 0.0035
60 net_284:33 net_284:49 0.0180
61 net_284:34 net_284:35 0.0010
62 net_284:37 net_284:38 0.0010
63 net_284:40 net_284:48 0.0050
64 net_284:42 net_284:43 0.0020
65 net_284:48 net_284:45 0.0021
66 net_284:50 net_284:51 0.0030
67 net_284:53 net_284:3 0.0010
68 net_284:54 net_284:7 0.0030
69 net_284:56 net_284:13 0.0010
70 net_284:59 net_284:17 0.0050
71 net_284:60 net_284:61 0.0050
72 net_284:61 net_284:24 0.0038
73 net_284:63 net_284:31 0.0050
74 net_284:64 net_284:33 0.0050
75 net_284:65 net_284:36 0.0050
76 net_284:66 net_284:67 0.0050
77 net_284:67 net_284:40 0.0200
78 net_284:68 net_284:22 0.0018
79 net_284:68 net_284:41 0.0050
80 net_284:69 net_284:45 0.0050
*END

*D_NET net_560 0.4108
*CONN
*I inst_1045:ZN O
*I inst_2561:D I
*CAP
1 inst_2561:D 0.0241
2 inst_1045:ZN 0.0834
3 net_560:1 0.1543
4 net_560:2 0.1012
5 net_560:3 0.0437
6 net_560:4 0.0010
7 net_560:5 0.0010
8 net_560:6 0.0010
9 net_560:7 0.0010
*RES
2 inst_2561:D net_560:2 0.0050
3 inst_1045:ZN net_560:4 0.0052
4 net_560:1 net_560:5 0.0050
5 net_560:1 net_560:6 0.0068
6 net_560:2 net_560:5 0.0035
7 net_560:3 net_560:7 0.0010
8 net_560:6 net_560:3 0.0050
9 net_560:7 net_560:4 0.0050
*END

*D_NET net_3031 1.0982
*CONN
*I inst_3073:Z O
*I inst_2616:CK I
*CAP
1 inst_3073:Z 0.1500
2 net_3031:1 0.0605
3 net_3031:2 0.1555
4 net_3031:3 0.4347
5 inst_2616:CK 0.2976
*RES
2 inst_3073:Z net_3031:1 0.3531
3 net_3031:1 net_3031:2 0.0316
4 net_3031:2 net_3031:3 0.1823
5 net_3031:3 inst_2616:CK 0.0755
*END

*D_NET net_439 0.1161
*CONN
*I inst_1857:ZN O
*I inst_1075:A1 I
*CAP
1 inst_1857:ZN 0.0348
2 inst_1075:A1 0.0192
3 net_439:1 0.0222
4 net_439:2 0.0379
5 net_439:3 0.0010
6 net_439:4 0.0010
*RES
2 inst_1857:ZN net_439:3 0.0021
3 inst_1075:A1 net_439:2 0.0050
4 net_439:1 net_439:3 0.0050
5 net_439:1 net_439:4 0.0010
6 net_439:4 net_439:2 0.0010
*END

*D_NET net_2513 0.0290
*CONN
*I inst_2398:ZN O
*I inst_343:A1 I
*CAP
1 inst_2398:ZN 0.0280
2 inst_343:A1 0.0010
*RES
2 inst_2398:ZN inst_343:A1 0.0021
*END

*D_NET net_259 0.8866
*CONN
*I inst_114:ZN O
*I inst_1910:A I
*CAP
1 inst_1910:A 0.0210
2 inst_114:ZN 0.0154
3 net_259:1 0.3898
4 net_259:2 0.1121
5 net_259:3 0.0333
6 net_259:4 0.2348
7 net_259:5 0.0276
8 net_259:6 0.0137
9 net_259:7 0.0197
10 net_259:8 0.0161
11 net_259:9 0.0010
12 net_259:10 0.0010
13 net_259:11 0.0010
*RES
2 inst_1910:A net_259:6 0.0050
3 inst_114:ZN net_259:8 0.0050
4 net_259:1 net_259:3 0.0030
5 net_259:2 net_259:4 0.0050
6 net_259:2 net_259:10 0.0010
7 net_259:3 net_259:5 0.0050
8 net_259:5 net_259:7 0.0050
9 net_259:7 net_259:8 0.0010
10 net_259:9 net_259:1 0.0063
11 net_259:9 net_259:10 0.0030
12 net_259:11 net_259:4 0.0094
13 net_259:11 net_259:6 0.0050
*END

*D_NET net_3351 1.1637
*CONN
*I inst_3393:Z O
*I inst_3394:A I
*CAP
1 inst_3393:Z 0.3515
2 net_3351:1 0.4269
3 net_3351:2 0.0493
4 net_3351:3 0.0341
5 inst_3394:A 0.3020
*RES
2 inst_3393:Z net_3351:1 0.3389
3 net_3351:1 net_3351:2 0.4000
4 net_3351:2 net_3351:3 0.0188
5 net_3351:3 inst_3394:A 0.4709
*END

*D_NET net_2645 0.1993
*CONN
*I inst_1660:ZN O
*I inst_526:A1 I
*CAP
1 inst_1660:ZN 0.0205
2 inst_526:A1 0.0276
3 net_2645:1 0.0885
4 net_2645:2 0.0154
5 net_2645:3 0.0259
6 net_2645:4 0.0194
7 net_2645:5 0.0010
8 net_2645:6 0.0010
*RES
2 inst_1660:ZN net_2645:4 0.0050
3 inst_526:A1 net_2645:5 0.0010
4 net_2645:1 net_2645:3 0.0050
5 net_2645:2 net_2645:5 0.0050
6 net_2645:3 net_2645:4 0.0010
7 net_2645:6 net_2645:1 0.0020
8 net_2645:6 net_2645:2 0.0050
*END

*D_NET net_1393 0.4675
*CONN
*I inst_255:ZN O
*I inst_206:A2 I
*I inst_198:A2 I
*CAP
1 inst_255:ZN 0.0180
2 inst_206:A2 0.0236
3 inst_198:A2 0.0151
4 net_1393:1 0.0244
5 net_1393:2 0.0763
6 net_1393:3 0.0127
7 net_1393:4 0.0170
8 net_1393:5 0.0102
9 net_1393:6 0.0093
10 net_1393:7 0.0238
11 net_1393:8 0.0097
12 net_1393:9 0.2264
13 net_1393:10 0.0010
*RES
2 inst_255:ZN net_1393:6 0.0050
3 inst_206:A2 net_1393:3 0.0050
4 inst_198:A2 net_1393:4 0.0050
5 net_1393:1 net_1393:9 0.0050
6 net_1393:1 net_1393:2 0.0034
7 net_1393:1 net_1393:10 0.0010
8 net_1393:2 net_1393:5 0.0050
9 net_1393:4 net_1393:5 0.0010
10 net_1393:6 net_1393:7 0.0010
11 net_1393:7 net_1393:8 0.0010
12 net_1393:8 net_1393:9 0.0085
13 net_1393:10 net_1393:3 0.0050
*END

*D_NET net_2169 0.4602
*CONN
*I inst_941:ZN O
*I inst_68:B2 I
*I inst_90:B1 I
*CAP
1 inst_941:ZN 0.0096
2 inst_68:B2 0.0290
3 inst_90:B1 0.0087
4 net_2169:1 0.0437
5 net_2169:2 0.1501
6 net_2169:3 0.1577
7 net_2169:4 0.0199
8 net_2169:5 0.0153
9 net_2169:6 0.0244
10 net_2169:7 0.0010
11 net_2169:8 0.0010
*RES
2 inst_941:ZN net_2169:5 0.0050
3 inst_68:B2 net_2169:6 0.0021
4 inst_90:B1 net_2169:4 0.0050
5 net_2169:1 net_2169:3 0.0050
6 net_2169:1 net_2169:2 0.0054
7 net_2169:1 net_2169:7 0.0014
8 net_2169:2 net_2169:5 0.0050
9 net_2169:3 net_2169:8 0.0045
10 net_2169:7 net_2169:4 0.0050
11 net_2169:8 net_2169:6 0.0050
*END

*D_NET net_3119 2.6165
*CONN
*I inst_3161:Z O
*I inst_3162:A I
*I inst_3383:A I
*CAP
1 inst_3161:Z 0.1138
2 net_3119:1 0.3567
3 net_3119:2 0.3242
4 net_3119:3 0.2336
5 net_3119:4 0.3863
6 inst_3162:A 0.2365
7 net_3119:5 0.4791
8 net_3119:6 0.2417
9 inst_3383:A 0.2444
*RES
2 inst_3161:Z net_3119:1 0.1037
3 net_3119:1 net_3119:2 0.3572
4 net_3119:2 net_3119:3 0.2211
5 net_3119:3 net_3119:4 0.2185
6 net_3119:4 inst_3162:A 0.2266
7 net_3119:3 net_3119:5 0.4262
8 net_3119:5 net_3119:6 0.3737
9 net_3119:6 inst_3383:A 0.3015
*END

*D_NET net_1324 0.2770
*CONN
*I inst_1407:ZN O
*I inst_1406:A1 I
*CAP
1 inst_1406:A1 0.0237
2 inst_1407:ZN 0.0110
3 net_1324:1 0.1554
4 net_1324:2 0.0673
5 net_1324:3 0.0176
6 net_1324:4 0.0010
7 net_1324:5 0.0010
*RES
2 inst_1406:A1 net_1324:4 0.0050
3 inst_1407:ZN net_1324:3 0.0050
4 net_1324:1 net_1324:3 0.0050
5 net_1324:4 net_1324:2 0.0015
6 net_1324:5 net_1324:1 0.0068
7 net_1324:5 net_1324:2 0.0050
*END

*D_NET net_1231 0.3084
*CONN
*I inst_797:ZN O
*I inst_2043:A I
*I inst_186:C2 I
*CAP
1 inst_2043:A 0.0456
2 inst_797:ZN 0.0541
3 inst_186:C2 0.0209
4 net_1231:1 0.1590
5 net_1231:2 0.0248
6 net_1231:3 0.0010
7 net_1231:4 0.0010
8 net_1231:5 0.0010
9 net_1231:6 0.0010
*RES
2 inst_2043:A net_1231:5 0.0031
3 inst_797:ZN net_1231:3 0.0031
4 inst_186:C2 net_1231:4 0.0010
5 net_1231:1 net_1231:3 0.0050
6 net_1231:1 net_1231:2 0.0010
7 net_1231:1 net_1231:6 0.0055
8 net_1231:2 net_1231:5 0.0050
9 net_1231:6 net_1231:4 0.0050
*END

*D_NET net_187 10.2582
*CONN
*I inst_1745:ZN O
*I inst_2841:A2 I
*I inst_1696:A1 I
*I inst_1699:A1 I
*I inst_1116:A2 I
*I inst_1141:A2 I
*I inst_1142:A2 I
*I inst_1143:A2 I